ELEMENTS  
C H O 
END    

SPECIES  
H2O2  H2O
!H2O2    H     H2     OH      H2O     CO   !   HCO            
END

THERMO ALL     300.000  1000.000  5000.000  
H                 L 6/94H   1    0    0    0G   200.000  6000.00  1000.00      1
 0.25000000E+01 0.00000000E+00 0.00000000E+00 0.00000000E+00 0.00000000E+00    2 
 0.25473660E+05-0.44668285E+00 0.25000000E+01 0.00000000E+00 0.00000000E+00    3 
 0.00000000E+00 0.00000000E+00 0.25473660E+05-0.44668285E+00 0.26219035E+05    4
H2                TPIS78H   2    0    0    0G   200.000  6000.00  1000.00      1   
 2.93286575E+00 8.26608026E-04-1.46402364E-07 1.54100414E-11-6.88804800E-16    2  
-8.13065581E+02-1.02432865E+00 2.34433112E+00 7.98052075E-03-1.94781510E-05    3   
 2.01572094E-08-7.37611761E-12-9.17935173E+02 6.83010238E-01 0.00000000E+00    4  
OH                IU3/03O   1 H  1    0    0G   200.000  6000.00  1000.00      1  
 2.83853033E+00 1.10741289E-03-2.94000209E-07 4.20698729E-11-2.42289890E-15    2  
 3.69780808E+03 5.84494652E+00 3.99198424E+00-2.40106655E-03 4.61664033E-06    3  
-3.87916306E-09 1.36319502E-12 3.36889836E+03-1.03998477E-01 4.48613328E+03    4  
H2O               L 5/89H   2 O  1    0    0G   200.000  6000.00  1000.00      1  
 0.26770389E+01 0.29731816E-02-0.77376889E-06 0.94433514E-10-0.42689991E-14    2  
-0.29885894E+05 0.68825500E+01 0.41986352E+01-0.20364017E-02 0.65203416E-05    3  
-0.54879269E-08 0.17719680E-11-0.30293726E+05-0.84900901E+00-0.29084817E+05    4  
CO                RUS 79C   1O   1    0    0G   200.000  6000.00  1000.00      1  
 0.30484859E+01 0.13517281E-02-0.48579405E-06 0.78853644E-10-0.46980746E-14    2  
-0.14266117E+05 0.60170977E+01 0.35795335E+01-0.61035369E-03 0.10168143E-05    3  
 0.90700586E-09-0.90442449E-12-0.14344086E+05 0.35084093E+01-0.13293628E+05    4  
HCO               T 5/03C  1 H  1 O  1    0 G   200.000  6000.00  1000.00      1  
 3.92001542E+00 2.52279324E-03-6.71004164E-07 1.05615948E-10-7.43798261E-15    2  
 3.65342928E+03 3.58077056E+00 4.23754610E+00-3.32075257E-03 1.40030264E-05    3  
-1.34239995E-08 4.37416208E-12 3.87241185E+03 3.30834869E+00 5.08749163E+03    4  
END

REACTIONS   MOLES  KELVINS   
! HCO(+M)<=>H+CO(+M)             4.930E+16      -0.93        9927  
! LOW                  /       4.9426E+010    0.95965      7367.9     /  
! TROE                 /        8.5200E-01  5.1400E+01 3.5700E+03 3.4200E+03 /  
! H2/2/ O2/1/ AR/0.55/ HE/0.786/ H2O/12/ CO/1.5/ CO2/2/  
OH+H2<=>H+H2O                1.3193E+007    1.87803       1585.8  

END
