ELEMENTS  
C H O 
END    

SPECIES  
VHP
ALKO
OH
END

REACTIONS   MOLES  KELVINS   
! HCO(+M)<=>H+CO(+M)             4.930E+16      -0.93        9927  
! LOW                  /       4.9426E+010    0.95965      7367.9     /  
! TROE                 /        8.5200E-01  5.1400E+01 3.5700E+03 3.4200E+03 /  
! H2/2/ O2/1/ AR/0.55/ HE/0.786/ H2O/12/ CO/1.5/ CO2/2/  
VHP<=>ALKO+OH              1.3193E+007    1.87803       1585.8  

END
