THERMO


! vib model: harm
! tors model: 1dhrfa
! sym model: sampling
! energy level: 1.00 x RUmp2/6-31G*//RUmp2/sto-3g
! tors level: RUmp2/sto-3g//RUmp2/sto-3g

! Hf(0 K) = -16.63, Hf(298 K) = -20.02 kcal/mol
C2H6                    H  6 C  2 O  0 N  0 G    200.0    3000.0   1000.0      1
 7.56520148E-01 2.36424243E-02-1.19997292E-05 2.94959661E-09-2.84338572E-13    2
-1.12395958E+04 1.77271791E+01 4.16770311E+00 6.95109986E-03 1.64246104E-05    3
-1.73320129E-08 4.85307284E-12-1.17369763E+04 2.11890034E+00                   4


! vib model: harm
! tors model: 1dhrfa
! sym model: sampling
! energy level: 1.00 x RUmp2/6-31G*//RUmp2/sto-3g
! tors level: RUmp2/sto-3g//RUmp2/sto-3g

! Hf(0 K) = 38.74, Hf(298 K) = 39.21 kcal/mol
H                       H  1 C  0 O  0 N  0 G    200.0    3000.0   1000.0      1
 2.49856327E+00 2.55065221E-06-1.88408471E-09 5.93128518E-13-6.85305400E-17    2
 1.89848739E+04-4.53664370E-01 2.49929216E+00 1.08315920E-06 3.56328243E-09    3
-9.26844763E-12 5.08428347E-15 1.89844978E+04-4.57956552E-01                   4


! vib model: harm
! tors model: 1dhrfa
! sym model: sampling
! energy level: 1.00 x RUmp2/6-31G*//RUmp2/sto-3g
! tors level: RUmp2/sto-3g//RUmp2/sto-3g

! Hf(0 K) = 40.79, Hf(298 K) = 38.07 kcal/mol
C2H5                    H  5 C  2 O  0 N  0 G    200.0    3000.0   1000.0      1
 1.38029628E+00 1.61707128E-02-6.85511089E-06 1.42942454E-09-1.18970128E-13    2
 1.80554482E+04 1.78752368E+01 4.79948081E+00-7.61899059E-03 5.03741936E-05    3
-5.64733831E-08 2.09250519E-11 1.77215781E+04 3.47132831E+00                   4


! vib model: harm
! tors model: 1dhrfa
! sym model: sampling
! energy level: 1.00 x RUmp2/6-31G*//RUmp2/sto-3g
! tors level: RUmp2/sto-3g//RUmp2/sto-3g

! Hf(0 K) = 0.00, Hf(298 K) = 4.97 kcal/mol
H2                      H  2 C  0 O  0 N  0 G    200.0    3000.0   1000.0      1
 3.42262400E+00 2.24813560E-04-2.33760005E-07 9.81012754E-11-1.20834050E-14    2
-9.97883312E+02-3.93237996E+00 3.49911956E+00 1.22040157E-06 5.24004701E-09    3
-1.27778797E-11 6.89329251E-15-1.01832453E+03-4.32448392E+00                   4


! vib model: harm
! tors model: 1dhrfa
! sym model: sampling
! energy level: 1.00 x RUmp2/6-31G*//RUmp2/sto-3g
! tors level: RUmp2/sto-3g//RUmp2/sto-3g

! Hf(0 K) = -15.91, Hf(298 K) = -17.83 kcal/mol
CH4                     H  4 C  1 O  0 N  0 G    200.0    3000.0   1000.0      1
-1.51583330E-01 1.18342754E-02-4.72703796E-06 9.19271692E-10-7.06704660E-14    2
-9.24438363E+03 2.03205862E+01 5.07334183E+00-1.10078450E-02 3.38648028E-05    3
-2.86142889E-08 8.48824457E-12-1.02405884E+04-4.52092674E+00                   4




END

