THERMO


! vib model: harm
! tors model: 1dhrfa
! sym model: sampling
! energy level: 1.00 x RUmp2/6-31G*//RUmp2/sto-3g
! tors level: RUmp2/sto-3g//RUmp2/sto-3g

! Hf(0 K) = -18.68, Hf(298 K) = -22.07 kcal/mol
C2H6                    H  6 C  2 O  0 N  0 G    200.0    3000.0   1000.0      1
 4.51240061E-01 2.42552481E-02-1.24008225E-05 3.06219182E-09-2.96024676E-13    2
-1.21804331E+04 1.93523389E+01 4.16573372E+00 6.97587195E-03 1.58981764E-05    3
-1.64043005E-08 4.43635120E-12-1.27680904E+04 2.12913920E+00                   4


! vib model: harm
! tors model: 1dhrfa
! sym model: sampling
! energy level: 1.00 x RUmp2/6-31G*//RUmp2/sto-3g
! tors level: RUmp2/sto-3g//RUmp2/sto-3g

! Hf(0 K) = 39.74, Hf(298 K) = 40.20 kcal/mol
H                       H  1 C  0 O  0 N  0 G    200.0    3000.0   1000.0      1
 2.49856327E+00 2.55065221E-06-1.88408471E-09 5.93128518E-13-6.85305400E-17    2
 1.94865271E+04-4.53664370E-01 2.49929216E+00 1.08315920E-06 3.56328243E-09    3
-9.26844763E-12 5.08428347E-15 1.94861510E+04-4.57956552E-01                   4


! vib model: harm
! tors model: 1dhrfa
! sym model: sampling
! energy level: 1.00 x RUmp2/6-31G*//RUmp2/sto-3g
! tors level: RUmp2/sto-3g//RUmp2/sto-3g

! Hf(0 K) = 37.80, Hf(298 K) = 35.13 kcal/mol
C2H5                    H  5 C  2 O  0 N  0 G    200.0    3000.0   1000.0      1
 1.47743822E+00 1.60215616E-02-6.76152900E-06 1.40251335E-09-1.16045345E-13    2
 1.65631593E+04 1.73057099E+01 5.31372233E+00-9.78341609E-03 5.42507276E-05    3
-5.97202253E-08 2.19631303E-11 1.61567947E+04 9.58899818E-01                   4


! vib model: harm
! tors model: 1dhrfa
! sym model: sampling
! energy level: 1.00 x RUmp2/6-31G*//RUmp2/sto-3g
! tors level: RUmp2/sto-3g//RUmp2/sto-3g

! Hf(0 K) = 0.00, Hf(298 K) = 4.97 kcal/mol
H2                      H  2 C  0 O  0 N  0 G    200.0    3000.0   1000.0      1
 3.47401022E+00 1.24802776E-04-1.85099146E-07 1.00424014E-10-1.42112685E-14    2
-1.01561836E+03-4.21187604E+00 3.49944639E+00-2.14429328E-06 1.71180077E-08    3
-2.95228745E-11 1.50293661E-14-1.01834811E+03-4.32573891E+00                   4


! vib model: harm
! tors model: 1dhrfa
! sym model: sampling
! energy level: 1.00 x RUmp2/6-31G*//RUmp2/sto-3g
! tors level: RUmp2/sto-3g//RUmp2/sto-3g

! Hf(0 K) = -15.91, Hf(298 K) = -17.83 kcal/mol
CH4                     H  4 C  1 O  0 N  0 G    200.0    3000.0   1000.0      1
-1.51583330E-01 1.18342754E-02-4.72703796E-06 9.19271692E-10-7.06704660E-14    2
-9.24642825E+03 2.03205862E+01 5.07334183E+00-1.10078450E-02 3.38648028E-05    3
-2.86142889E-08 8.48824457E-12-1.02426330E+04-4.52092674E+00                   4




END

