ELEMENTS  
C H N O 
END    

SPECIES  
C2H3
C2H4
OH
H2O
!HNC
!CN
!HCN
!O
!OH
!CH2
!CH3
END


REACTIONS   MOLES  KELVINS   
C2H4+OH=C2H3+H2O        1.e10 0. 10000.
!CN+OH=HCN+O             1.e10 0. 10000.
END 


 

