ELEMENTS  
C H N O 
END    

SPECIES  
CH3OH
!CH2
!CH3
!HNC
!HCN
!CN
!O
!OH
END


REACTIONS   MOLES  KELVINS   
CN+OH=HCN+O             1.e10 0. 10000.
CN+OH=HNC+O             1.e10 0. 10000.
END 


 

