ELEMENTS  
C H N O 
END    

SPECIES  
C2H3
HNC
HCN
C2H2
CN
O
H
OH
C2H6
C2H5
C2H4
H2
H2O
END


REACTIONS   MOLES  KELVINS   
C2H4+OH=C2H3+H2O                1.e10           0.0         10000.
C2H6+H=C2H5+H2                1.e10           0.0         10000.
!CN+OH=HCN+O             1.e10 0. 10000.
!CN+OH=HNC+O             1.e10 0. 10000.
END 


 

