ELEMENTS  
C H N O 
END    

SPECIES  
CH3O
CH2OH
CH2O
H
!C10H22
!C9H20
!C8H18
!C7H16
!C6H14
!C5H12
!C4H10
!C3H8
!CH3OH
!C2H3
!C2H4
!OH
!H2O
!HNC
!CN
!HCN
!O
!OH
!CH2
!CH3
END


REACTIONS   MOLES  KELVINS   
CH2O+H=CH3O        1.e10 0. 10000.
CH2OH=CH3O         1.e10 0. 10000.
CH2OH=CH2O+H       1.e10 0. 10000.
!CN+OH=HCN+O             1.e10 0. 10000.
!C2H4+OH=C2H3+H2O        1.e10 0. 10000.
!CN+OH=HCN+O             1.e10 0. 10000.
END 


 

